Outputs/ieee118-voltage-perturbation.xiidm
<?xml version="1.0" encoding="UTF-8"?>
<iidm:network xmlns:iidm="http://www.powsybl.org/schema/iidm/1_12" xmlns:reft="http://www.powsybl.org/schema/iidm/ext/reference_terminals/1_0" xmlns:slt="http://www.powsybl.org/schema/iidm/ext/slack_terminal/1_5" id="ieee118cdf" caseDate="1993-08-25T00:00:00.000Z" forecastDistance="0" sourceFormat="IEEE-CDF" minimumValidationLevel="STEADY_STATE_HYPOTHESIS">
    <iidm:substation id="S1">
        <iidm:voltageLevel id="VL1" nominalV="138.0" topologyKind="BUS_BREAKER">
            <iidm:busBreakerTopology>
                <iidm:bus id="B1" name="Riversde  V2" v="128.51710043174532" angle="-58.96389518997663"/>
            </iidm:busBreakerTopology>
            <iidm:generator id="B1-G" energySource="OTHER" minP="-9999.0" maxP="9999.0" voltageRegulatorOn="true" targetP="0.0" targetV="131.79" targetQ="0.0" bus="B1" connectableBus="B1" p="-0.0" q="-808.4857877642826">
                <iidm:minMaxReactiveLimits minQ="-5.0" maxQ="15.0"/>
            </iidm:generator>
            <iidm:load id="B1-L" loadType="UNDEFINED" p0="51.0" q0="27.0" bus="B1" connectableBus="B1" p="51.0" q="27.0"/>
        </iidm:voltageLevel>
    </iidm:substation>
    <iidm:substation id="S2">
        <iidm:voltageLevel id="VL2" nominalV="138.0" topologyKind="BUS_BREAKER">
            <iidm:busBreakerTopology>
                <iidm:bus id="B2" name="Pokagon   V2" v="128.5078142508151" angle="-58.96402779759572"/>
            </iidm:busBreakerTopology>
            <iidm:load id="B2-L" loadType="UNDEFINED" p0="20.0" q0="9.0" bus="B2" connectableBus="B2" p="20.0" q="9.0"/>
        </iidm:voltageLevel>
    </iidm:substation>
    <iidm:substation id="S3">
        <iidm:voltageLevel id="VL3" nominalV="138.0" topologyKind="BUS_BREAKER">
            <iidm:busBreakerTopology>
                <iidm:bus id="B3" name="HickryCk  V2" v="120.34909507004193" angle="-55.42260215753585"/>
            </iidm:busBreakerTopology>
            <iidm:load id="B3-L" loadType="UNDEFINED" p0="39.0" q0="10.0" bus="B3" connectableBus="B3" p="39.0" q="10.0"/>
        </iidm:voltageLevel>
    </iidm:substation>
    <iidm:substation id="S4">
        <iidm:voltageLevel id="VL4" nominalV="138.0" topologyKind="BUS_BREAKER">
            <iidm:busBreakerTopology>
                <iidm:bus id="B4" name="NwCarlsl  V2" v="137.72400000000002" angle="-48.47643631269418"/>
            </iidm:busBreakerTopology>
            <iidm:generator id="B4-G" energySource="OTHER" minP="-9999.0" maxP="9999.0" voltageRegulatorOn="true" targetP="-9.0" targetV="137.724" targetQ="0.0" bus="B4" connectableBus="B4" p="9.0" q="-692.0993230712518">
                <iidm:minMaxReactiveLimits minQ="-300.0" maxQ="300.0"/>
            </iidm:generator>
            <iidm:load id="B4-L" loadType="UNDEFINED" p0="30.0" q0="12.0" bus="B4" connectableBus="B4" p="30.0" q="12.0"/>
        </iidm:voltageLevel>
    </iidm:substation>
    <iidm:substation id="S5">
        <iidm:voltageLevel id="VL5" nominalV="138.0" topologyKind="BUS_BREAKER">
            <iidm:busBreakerTopology>
                <iidm:bus id="B5" name="Olive     V2" v="134.98444201287168" angle="-47.484311720814716"/>
            </iidm:busBreakerTopology>
            <iidm:shunt id="B5-SH" sectionCount="1" voltageRegulatorOn="false" bus="B5" connectableBus="B5" p="0.0" q="38.27095061022122">
                <iidm:shuntLinearModel bPerSection="-0.002100399075824407" maximumSectionCount="1"/>
            </iidm:shunt>
        </iidm:voltageLevel>
        <iidm:voltageLevel id="VL8" nominalV="345.0" topologyKind="BUS_BREAKER">
            <iidm:busBreakerTopology>
                <iidm:bus id="B8" name="Olive     V1" v="350.17500000000007" angle="-39.269044483497154"/>
            </iidm:busBreakerTopology>
            <iidm:generator id="B8-G" energySource="OTHER" minP="-9999.0" maxP="9999.0" voltageRegulatorOn="true" targetP="-28.0" targetV="350.17499999999995" targetQ="0.0" bus="B8" connectableBus="B8" p="28.000000000000004" q="-226.79888288314464">
                <iidm:minMaxReactiveLimits minQ="-300.0" maxQ="300.0"/>
            </iidm:generator>
        </iidm:voltageLevel>
        <iidm:twoWindingsTransformer id="T8-5-1" r="0.0" x="5.084748" g="0.0" b="0.0" ratedU1="339.825" ratedU2="138.0" voltageLevelId1="VL8" bus1="B8" connectableBus1="B8" voltageLevelId2="VL5" bus2="B5" connectableBus2="B5" p1="539.4275516558165" q1="240.61859185602134" p2="-539.4275516558165" q2="-152.89286960544942"/>
    </iidm:substation>
    <iidm:substation id="S6">
        <iidm:voltageLevel id="VL6" nominalV="138.0" topologyKind="BUS_BREAKER">
            <iidm:busBreakerTopology>
                <iidm:bus id="B6" name="Kankakee  V2" v="136.61999999999998" angle="-52.5179675536261"/>
            </iidm:busBreakerTopology>
            <iidm:generator id="B6-G" energySource="OTHER" minP="-9999.0" maxP="9999.0" voltageRegulatorOn="true" targetP="0.0" targetV="136.62" targetQ="0.0" bus="B6" connectableBus="B6" p="-0.0" q="-889.6131512163752">
                <iidm:minMaxReactiveLimits minQ="-13.0" maxQ="50.0"/>
            </iidm:generator>
            <iidm:load id="B6-L" loadType="UNDEFINED" p0="52.0" q0="22.0" bus="B6" connectableBus="B6" p="52.0" q="22.0"/>
        </iidm:voltageLevel>
    </iidm:substation>
    <iidm:substation id="S7">
        <iidm:voltageLevel id="VL7" nominalV="138.0" topologyKind="BUS_BREAKER">
            <iidm:busBreakerTopology>
                <iidm:bus id="B7" name="JacksnRd  V2" v="112.6261641509644" angle="-51.24477960807054"/>
            </iidm:busBreakerTopology>
            <iidm:load id="B7-L" loadType="UNDEFINED" p0="19.0" q0="2.0" bus="B7" connectableBus="B7" p="19.0" q="2.0"/>
        </iidm:voltageLevel>
    </iidm:substation>
    <iidm:substation id="S9">
        <iidm:voltageLevel id="VL9" nominalV="345.0" topologyKind="BUS_BREAKER">
            <iidm:busBreakerTopology>
                <iidm:bus id="B9" name="Bequine   V1" v="359.80678076401745" angle="-32.01493941189168"/>
            </iidm:busBreakerTopology>
        </iidm:voltageLevel>
    </iidm:substation>
    <iidm:substation id="S10">
        <iidm:voltageLevel id="VL10" nominalV="345.0" topologyKind="BUS_BREAKER">
            <iidm:busBreakerTopology>
                <iidm:bus id="B10" name="Breed     V1" v="362.25" angle="-24.434030263990806"/>
            </iidm:busBreakerTopology>
            <iidm:generator id="B10-G" energySource="OTHER" minP="-9999.0" maxP="9999.0" voltageRegulatorOn="true" targetP="450.0" targetV="362.25" targetQ="0.0" bus="B10" connectableBus="B10" p="-450.0" q="51.04215159113601">
                <iidm:minMaxReactiveLimits minQ="-147.0" maxQ="200.0"/>
            </iidm:generator>
        </iidm:voltageLevel>
    </iidm:substation>
    <iidm:substation id="S11">
        <iidm:voltageLevel id="VL11" nominalV="138.0" topologyKind="BUS_BREAKER">
            <iidm:busBreakerTopology>
                <iidm:bus id="B11" name="SouthBnd  V2" v="96.67366805577082" angle="-47.883020006423585"/>
            </iidm:busBreakerTopology>
            <iidm:load id="B11-L" loadType="UNDEFINED" p0="70.0" q0="23.0" bus="B11" connectableBus="B11" p="70.0" q="23.0"/>
        </iidm:voltageLevel>
    </iidm:substation>
    <iidm:substation id="S12">
        <iidm:voltageLevel id="VL12" nominalV="138.0" topologyKind="BUS_BREAKER">
            <iidm:busBreakerTopology>
                <iidm:bus id="B12" name="TwinBrch  V2" v="74.06990724200767" angle="-45.593790253212674"/>
            </iidm:busBreakerTopology>
            <iidm:generator id="B12-G" energySource="OTHER" minP="-9999.0" maxP="9999.0" voltageRegulatorOn="true" targetP="85.0" targetV="125.20049999999999" targetQ="0.0" bus="B12" connectableBus="B12" p="-85.0" q="1465.1542836471463">
                <iidm:regulatingTerminal id="L1-2-1" side="TWO"/>
                <iidm:minMaxReactiveLimits minQ="-35.0" maxQ="120.0"/>
            </iidm:generator>
            <iidm:load id="B12-L" loadType="UNDEFINED" p0="47.0" q0="10.0" bus="B12" connectableBus="B12" p="47.0" q="10.0"/>
        </iidm:voltageLevel>
    </iidm:substation>
    <iidm:substation id="S13">
        <iidm:voltageLevel id="VL13" nominalV="138.0" topologyKind="BUS_BREAKER">
            <iidm:busBreakerTopology>
                <iidm:bus id="B13" name="Concord   V2" v="102.63144559778793" angle="-48.541623251661264"/>
            </iidm:busBreakerTopology>
            <iidm:load id="B13-L" loadType="UNDEFINED" p0="34.0" q0="16.0" bus="B13" connectableBus="B13" p="34.0" q="16.0"/>
        </iidm:voltageLevel>
    </iidm:substation>
    <iidm:substation id="S14">
        <iidm:voltageLevel id="VL14" nominalV="138.0" topologyKind="BUS_BREAKER">
            <iidm:busBreakerTopology>
                <iidm:bus id="B14" name="GoshenJt  V2" v="89.53511735847808" angle="-46.08437690880543"/>
            </iidm:busBreakerTopology>
            <iidm:load id="B14-L" loadType="UNDEFINED" p0="14.0" q0="1.0" bus="B14" connectableBus="B14" p="14.0" q="1.0"/>
        </iidm:voltageLevel>
    </iidm:substation>
    <iidm:substation id="S15">
        <iidm:voltageLevel id="VL15" nominalV="138.0" topologyKind="BUS_BREAKER">
            <iidm:busBreakerTopology>
                <iidm:bus id="B15" name="FtWayne   V2" v="133.85999999999999" angle="-44.34100577430945"/>
            </iidm:busBreakerTopology>
            <iidm:generator id="B15-G" energySource="OTHER" minP="-9999.0" maxP="9999.0" voltageRegulatorOn="true" targetP="0.0" targetV="133.85999999999999" targetQ="0.0" bus="B15" connectableBus="B15" p="-0.0" q="-311.5448767590622">
                <iidm:minMaxReactiveLimits minQ="-10.0" maxQ="30.0"/>
            </iidm:generator>
            <iidm:load id="B15-L" loadType="UNDEFINED" p0="90.0" q0="30.0" bus="B15" connectableBus="B15" p="90.0" q="30.0"/>
        </iidm:voltageLevel>
    </iidm:substation>
    <iidm:substation id="S16">
        <iidm:voltageLevel id="VL16" nominalV="138.0" topologyKind="BUS_BREAKER">
            <iidm:busBreakerTopology>
                <iidm:bus id="B16" name="N. E.     V2" v="91.39426613675744" angle="-45.140072942071335"/>
            </iidm:busBreakerTopology>
            <iidm:load id="B16-L" loadType="UNDEFINED" p0="25.0" q0="10.0" bus="B16" connectableBus="B16" p="25.0" q="10.0"/>
        </iidm:voltageLevel>
    </iidm:substation>
    <iidm:substation id="S17">
        <iidm:voltageLevel id="VL17" nominalV="138.0" topologyKind="BUS_BREAKER">
            <iidm:busBreakerTopology>
                <iidm:bus id="B17" name="Sorenson  V2" v="134.7130490295433" angle="-40.91824943391602"/>
            </iidm:busBreakerTopology>
            <iidm:load id="B17-L" loadType="UNDEFINED" p0="11.0" q0="3.0" bus="B17" connectableBus="B17" p="11.0" q="3.0"/>
        </iidm:voltageLevel>
        <iidm:voltageLevel id="VL30" nominalV="345.0" topologyKind="BUS_BREAKER">
            <iidm:busBreakerTopology>
                <iidm:bus id="B30" name="Sorenson  V1" v="335.2969366502546" angle="-35.29786657416731"/>
            </iidm:busBreakerTopology>
        </iidm:voltageLevel>
        <iidm:twoWindingsTransformer id="T30-17-1" r="0.0" x="7.3890720000000005" g="0.0" b="0.0" ratedU1="331.2" ratedU2="138.0" voltageLevelId1="VL30" bus1="B30" connectableBus1="B30" voltageLevelId2="VL17" bus2="B17" connectableBus2="B17" p1="249.4506606888105" q1="106.66762315522121" p2="-249.4506606888105" q2="-78.80305290956457"/>
    </iidm:substation>
    <iidm:substation id="S18">
        <iidm:voltageLevel id="VL18" nominalV="138.0" topologyKind="BUS_BREAKER">
            <iidm:busBreakerTopology>
                <iidm:bus id="B18" name="McKinley  V2" v="134.274" angle="-43.15306861058599"/>
            </iidm:busBreakerTopology>
            <iidm:generator id="B18-G" energySource="OTHER" minP="-9999.0" maxP="9999.0" voltageRegulatorOn="true" targetP="0.0" targetV="134.274" targetQ="0.0" bus="B18" connectableBus="B18" p="-0.0" q="-64.64976778401567">
                <iidm:minMaxReactiveLimits minQ="-16.0" maxQ="50.0"/>
            </iidm:generator>
            <iidm:load id="B18-L" loadType="UNDEFINED" p0="60.0" q0="34.0" bus="B18" connectableBus="B18" p="60.0" q="34.0"/>
        </iidm:voltageLevel>
    </iidm:substation>
    <iidm:substation id="S19">
        <iidm:voltageLevel id="VL19" nominalV="138.0" topologyKind="BUS_BREAKER">
            <iidm:busBreakerTopology>
                <iidm:bus id="B19" name="Lincoln   V2" v="132.756" angle="-43.33167090273565"/>
            </iidm:busBreakerTopology>
            <iidm:generator id="B19-G" energySource="OTHER" minP="-9999.0" maxP="9999.0" voltageRegulatorOn="true" targetP="0.0" targetV="132.756" targetQ="0.0" bus="B19" connectableBus="B19" p="-0.0" q="8.470964428688282">
                <iidm:minMaxReactiveLimits minQ="-8.0" maxQ="24.0"/>
            </iidm:generator>
            <iidm:load id="B19-L" loadType="UNDEFINED" p0="45.0" q0="25.0" bus="B19" connectableBus="B19" p="45.0" q="25.0"/>
        </iidm:voltageLevel>
    </iidm:substation>
    <iidm:substation id="S20">
        <iidm:voltageLevel id="VL20" nominalV="138.0" topologyKind="BUS_BREAKER">
            <iidm:busBreakerTopology>
                <iidm:bus id="B20" name="Adams     V2" v="131.5098441003349" angle="-41.21085232555875"/>
            </iidm:busBreakerTopology>
            <iidm:load id="B20-L" loadType="UNDEFINED" p0="18.0" q0="3.0" bus="B20" connectableBus="B20" p="18.0" q="3.0"/>
        </iidm:voltageLevel>
    </iidm:substation>
    <iidm:substation id="S21">
        <iidm:voltageLevel id="VL21" nominalV="138.0" topologyKind="BUS_BREAKER">
            <iidm:busBreakerTopology>
                <iidm:bus id="B21" name="Jay       V2" v="131.3573629668371" angle="-38.6973830692946"/>
            </iidm:busBreakerTopology>
            <iidm:load id="B21-L" loadType="UNDEFINED" p0="14.0" q0="8.0" bus="B21" connectableBus="B21" p="14.0" q="8.0"/>
        </iidm:voltageLevel>
    </iidm:substation>
    <iidm:substation id="S22">
        <iidm:voltageLevel id="VL22" nominalV="138.0" topologyKind="BUS_BREAKER">
            <iidm:busBreakerTopology>
                <iidm:bus id="B22" name="Randolph  V2" v="132.84658547110945" angle="-35.081212265749194"/>
            </iidm:busBreakerTopology>
            <iidm:load id="B22-L" loadType="UNDEFINED" p0="10.0" q0="5.0" bus="B22" connectableBus="B22" p="10.0" q="5.0"/>
        </iidm:voltageLevel>
    </iidm:substation>
    <iidm:substation id="S23">
        <iidm:voltageLevel id="VL23" nominalV="138.0" topologyKind="BUS_BREAKER">
            <iidm:busBreakerTopology>
                <iidm:bus id="B23" name="CollCrnr  V2" v="137.56086341680214" angle="-28.50153432104669"/>
            </iidm:busBreakerTopology>
            <iidm:load id="B23-L" loadType="UNDEFINED" p0="7.0" q0="3.0" bus="B23" connectableBus="B23" p="7.0" q="3.0"/>
        </iidm:voltageLevel>
    </iidm:substation>
    <iidm:substation id="S24">
        <iidm:voltageLevel id="VL24" nominalV="138.0" topologyKind="BUS_BREAKER">
            <iidm:busBreakerTopology>
                <iidm:bus id="B24" name="Trenton   V2" v="136.896" angle="-25.77815246248101"/>
            </iidm:busBreakerTopology>
            <iidm:generator id="B24-G" energySource="OTHER" minP="-9999.0" maxP="9999.0" voltageRegulatorOn="true" targetP="-13.0" targetV="136.896" targetQ="0.0" bus="B24" connectableBus="B24" p="13.0" q="12.792571179304266">
                <iidm:minMaxReactiveLimits minQ="-300.0" maxQ="300.0"/>
            </iidm:generator>
        </iidm:voltageLevel>
    </iidm:substation>
    <iidm:substation id="S25">
        <iidm:voltageLevel id="VL25" nominalV="138.0" topologyKind="BUS_BREAKER">
            <iidm:busBreakerTopology>
                <iidm:bus id="B25" name="TannrsCk  V2" v="144.9" angle="-23.52259628095992"/>
            </iidm:busBreakerTopology>
            <iidm:generator id="B25-G" energySource="OTHER" minP="-9999.0" maxP="9999.0" voltageRegulatorOn="true" targetP="220.0" targetV="144.9" targetQ="0.0" bus="B25" connectableBus="B25" p="-220.00000000000003" q="-56.64984897387766">
                <iidm:minMaxReactiveLimits minQ="-47.0" maxQ="140.0"/>
            </iidm:generator>
        </iidm:voltageLevel>
        <iidm:voltageLevel id="VL26" nominalV="345.0" topologyKind="BUS_BREAKER">
            <iidm:busBreakerTopology>
                <iidm:bus id="B26" name="TannrsCk  V1" v="350.17500000000007" angle="-22.458670415203912"/>
            </iidm:busBreakerTopology>
            <iidm:generator id="B26-G" energySource="OTHER" minP="-9999.0" maxP="9999.0" voltageRegulatorOn="true" targetP="314.0" targetV="350.17499999999995" targetQ="0.0" bus="B26" connectableBus="B26" p="-314.0" q="-29.32722452871196">
                <iidm:minMaxReactiveLimits minQ="-1000.0" maxQ="1000.0"/>
            </iidm:generator>
        </iidm:voltageLevel>
        <iidm:twoWindingsTransformer id="T26-25-1" r="0.0" x="7.274807999999999" g="0.0" b="0.0" ratedU1="331.2" ratedU2="138.0" voltageLevelId1="VL26" bus1="B26" connectableBus1="B26" voltageLevelId2="VL25" bus2="B25" connectableBus2="B25" p1="53.96156318625918" q1="20.682744349696772" p2="-53.96156318625916" q2="-19.541518484801"/>
    </iidm:substation>
    <iidm:substation id="S27">
        <iidm:voltageLevel id="VL27" nominalV="138.0" topologyKind="BUS_BREAKER">
            <iidm:busBreakerTopology>
                <iidm:bus id="B27" name="Madison   V2" v="133.584" angle="-36.75438234948337"/>
            </iidm:busBreakerTopology>
            <iidm:generator id="B27-G" energySource="OTHER" minP="-9999.0" maxP="9999.0" voltageRegulatorOn="true" targetP="-9.0" targetV="133.584" targetQ="0.0" bus="B27" connectableBus="B27" p="9.0" q="-5.678720789356523">
                <iidm:minMaxReactiveLimits minQ="-300.0" maxQ="300.0"/>
            </iidm:generator>
            <iidm:load id="B27-L" loadType="UNDEFINED" p0="62.0" q0="13.0" bus="B27" connectableBus="B27" p="62.0" q="13.0"/>
        </iidm:voltageLevel>
    </iidm:substation>
    <iidm:substation id="S28">
        <iidm:voltageLevel id="VL28" nominalV="138.0" topologyKind="BUS_BREAKER">
            <iidm:busBreakerTopology>
                <iidm:bus id="B28" name="Mullin    V2" v="132.68898447457104" angle="-38.833012529883526"/>
            </iidm:busBreakerTopology>
            <iidm:load id="B28-L" loadType="UNDEFINED" p0="17.0" q0="7.0" bus="B28" connectableBus="B28" p="17.0" q="7.0"/>
        </iidm:voltageLevel>
    </iidm:substation>
    <iidm:substation id="S29">
        <iidm:voltageLevel id="VL29" nominalV="138.0" topologyKind="BUS_BREAKER">
            <iidm:busBreakerTopology>
                <iidm:bus id="B29" name="Grant     V2" v="132.9337636623481" angle="-40.22006499860828"/>
            </iidm:busBreakerTopology>
            <iidm:load id="B29-L" loadType="UNDEFINED" p0="24.0" q0="4.0" bus="B29" connectableBus="B29" p="24.0" q="4.0"/>
        </iidm:voltageLevel>
    </iidm:substation>
    <iidm:substation id="S31">
        <iidm:voltageLevel id="VL31" nominalV="138.0" topologyKind="BUS_BREAKER">
            <iidm:busBreakerTopology>
                <iidm:bus id="B31" name="DeerCrk   V2" v="133.446" angle="-40.24376241911438"/>
            </iidm:busBreakerTopology>
            <iidm:generator id="B31-G" energySource="OTHER" minP="-9999.0" maxP="9999.0" voltageRegulatorOn="true" targetP="7.0" targetV="133.446" targetQ="0.0" bus="B31" connectableBus="B31" p="-7.000000000000001" q="-44.79234662360193">
                <iidm:minMaxReactiveLimits minQ="-300.0" maxQ="300.0"/>
            </iidm:generator>
            <iidm:load id="B31-L" loadType="UNDEFINED" p0="43.0" q0="27.0" bus="B31" connectableBus="B31" p="43.0" q="27.0"/>
        </iidm:voltageLevel>
    </iidm:substation>
    <iidm:substation id="S32">
        <iidm:voltageLevel id="VL32" nominalV="138.0" topologyKind="BUS_BREAKER">
            <iidm:busBreakerTopology>
                <iidm:bus id="B32" name="Delaware  V2" v="132.89400000000003" angle="-37.297018966115786"/>
            </iidm:busBreakerTopology>
            <iidm:generator id="B32-G" energySource="OTHER" minP="-9999.0" maxP="9999.0" voltageRegulatorOn="true" targetP="0.0" targetV="132.894" targetQ="0.0" bus="B32" connectableBus="B32" p="-0.0" q="8.57302843167246">
                <iidm:minMaxReactiveLimits minQ="-14.0" maxQ="42.0"/>
            </iidm:generator>
            <iidm:load id="B32-L" loadType="UNDEFINED" p0="59.0" q0="23.0" bus="B32" connectableBus="B32" p="59.0" q="23.0"/>
        </iidm:voltageLevel>
    </iidm:substation>
    <iidm:substation id="S33">
        <iidm:voltageLevel id="VL33" nominalV="138.0" topologyKind="BUS_BREAKER">
            <iidm:busBreakerTopology>
                <iidm:bus id="B33" name="Haviland  V2" v="133.49500005954067" angle="-41.37916236494676"/>
            </iidm:busBreakerTopology>
            <iidm:load id="B33-L" loadType="UNDEFINED" p0="23.0" q0="9.0" bus="B33" connectableBus="B33" p="23.0" q="9.0"/>
        </iidm:voltageLevel>
    </iidm:substation>
    <iidm:substation id="S34">
        <iidm:voltageLevel id="VL34" nominalV="138.0" topologyKind="BUS_BREAKER">
            <iidm:busBreakerTopology>
                <iidm:bus id="B34" name="Rockhill  V2" v="135.79199999999994" angle="-36.81476027521395"/>
            </iidm:busBreakerTopology>
            <iidm:generator id="B34-G" energySource="OTHER" minP="-9999.0" maxP="9999.0" voltageRegulatorOn="true" targetP="0.0" targetV="135.792" targetQ="0.0" bus="B34" connectableBus="B34" p="-0.0" q="-19.442264470672242">
                <iidm:minMaxReactiveLimits minQ="-8.0" maxQ="24.0"/>
            </iidm:generator>
            <iidm:load id="B34-L" loadType="UNDEFINED" p0="59.0" q0="26.0" bus="B34" connectableBus="B34" p="59.0" q="26.0"/>
            <iidm:shunt id="B34-SH" sectionCount="1" voltageRegulatorOn="false" bus="B34" connectableBus="B34" p="0.0" q="-13.555583999999993">
                <iidm:shuntLinearModel bPerSection="7.351396765385424E-4" maximumSectionCount="1"/>
            </iidm:shunt>
        </iidm:voltageLevel>
    </iidm:substation>
    <iidm:substation id="S35">
        <iidm:voltageLevel id="VL35" nominalV="138.0" topologyKind="BUS_BREAKER">
            <iidm:busBreakerTopology>
                <iidm:bus id="B35" name="WestLima  V2" v="135.2264078639791" angle="-37.23635683236"/>
            </iidm:busBreakerTopology>
            <iidm:load id="B35-L" loadType="UNDEFINED" p0="33.0" q0="9.0" bus="B35" connectableBus="B35" p="33.0" q="9.0"/>
        </iidm:voltageLevel>
    </iidm:substation>
    <iidm:substation id="S36">
        <iidm:voltageLevel id="VL36" nominalV="138.0" topologyKind="BUS_BREAKER">
            <iidm:busBreakerTopology>
                <iidm:bus id="B36" name="Sterling  V2" v="135.24000000000004" angle="-37.250322175194306"/>
            </iidm:busBreakerTopology>
            <iidm:generator id="B36-G" energySource="OTHER" minP="-9999.0" maxP="9999.0" voltageRegulatorOn="true" targetP="0.0" targetV="135.24" targetQ="0.0" bus="B36" connectableBus="B36" p="-0.0" q="-12.887427668505625">
                <iidm:minMaxReactiveLimits minQ="-8.0" maxQ="24.0"/>
            </iidm:generator>
            <iidm:load id="B36-L" loadType="UNDEFINED" p0="31.0" q0="17.0" bus="B36" connectableBus="B36" p="31.0" q="17.0"/>
        </iidm:voltageLevel>
    </iidm:substation>
    <iidm:substation id="S37">
        <iidm:voltageLevel id="VL37" nominalV="138.0" topologyKind="BUS_BREAKER">
            <iidm:busBreakerTopology>
                <iidm:bus id="B37" name="EastLima  V2" v="136.26843545987458" angle="-36.25119915528942"/>
            </iidm:busBreakerTopology>
            <iidm:shunt id="B37-SH" sectionCount="1" voltageRegulatorOn="false" bus="B37" connectableBus="B37" p="0.0" q="24.376557580710468">
                <iidm:shuntLinearModel bPerSection="-0.001312749422390254" maximumSectionCount="1"/>
            </iidm:shunt>
        </iidm:voltageLevel>
        <iidm:voltageLevel id="VL38" nominalV="345.0" topologyKind="BUS_BREAKER">
            <iidm:busBreakerTopology>
                <iidm:bus id="B38" name="EastLima  V1" v="325.55839270750954" angle="-30.959003375476563"/>
            </iidm:busBreakerTopology>
        </iidm:voltageLevel>
        <iidm:twoWindingsTransformer id="T38-37-1" r="0.0" x="7.1415" g="0.0" b="0.0" ratedU1="322.57500000000005" ratedU2="138.0" voltageLevelId1="VL38" bus1="B38" connectableBus1="B38" voltageLevelId2="VL37" bus2="B37" connectableBus2="B37" p1="245.11995437227787" q1="69.98935265201963" p2="-245.11995437227787" q2="-46.06556289383047"/>
    </iidm:substation>
    <iidm:substation id="S39">
        <iidm:voltageLevel id="VL39" nominalV="138.0" topologyKind="BUS_BREAKER">
            <iidm:busBreakerTopology>
                <iidm:bus id="B39" name="NwLibrty  V2" v="133.77349331552023" angle="-37.868944867241844"/>
            </iidm:busBreakerTopology>
            <iidm:load id="B39-L" loadType="UNDEFINED" p0="27.0" q0="11.0" bus="B39" connectableBus="B39" p="27.0" q="11.0"/>
        </iidm:voltageLevel>
    </iidm:substation>
    <iidm:substation id="S40">
        <iidm:voltageLevel id="VL40" nominalV="138.0" topologyKind="BUS_BREAKER">
            <iidm:busBreakerTopology>
                <iidm:bus id="B40" name="West End  V2" v="133.85999999999999" angle="-37.913971506346776"/>
            </iidm:busBreakerTopology>
            <iidm:generator id="B40-G" energySource="OTHER" minP="-9999.0" maxP="9999.0" voltageRegulatorOn="true" targetP="-46.0" targetV="133.85999999999999" targetQ="0.0" bus="B40" connectableBus="B40" p="46.0" q="-30.496702960960647">
                <iidm:minMaxReactiveLimits minQ="-300.0" maxQ="300.0"/>
            </iidm:generator>
            <iidm:load id="B40-L" loadType="UNDEFINED" p0="20.0" q0="23.0" bus="B40" connectableBus="B40" p="20.0" q="23.0"/>
        </iidm:voltageLevel>
    </iidm:substation>
    <iidm:substation id="S41">
        <iidm:voltageLevel id="VL41" nominalV="138.0" topologyKind="BUS_BREAKER">
            <iidm:busBreakerTopology>
                <iidm:bus id="B41" name="S.Tiffin  V2" v="133.3465235407941" angle="-37.5254143099013"/>
            </iidm:busBreakerTopology>
            <iidm:load id="B41-L" loadType="UNDEFINED" p0="37.0" q0="10.0" bus="B41" connectableBus="B41" p="37.0" q="10.0"/>
        </iidm:voltageLevel>
    </iidm:substation>
    <iidm:substation id="S42">
        <iidm:voltageLevel id="VL42" nominalV="138.0" topologyKind="BUS_BREAKER">
            <iidm:busBreakerTopology>
                <iidm:bus id="B42" name="Howard    V2" v="135.93" angle="-33.64294266953786"/>
            </iidm:busBreakerTopology>
            <iidm:generator id="B42-G" energySource="OTHER" minP="-9999.0" maxP="9999.0" voltageRegulatorOn="true" targetP="-59.0" targetV="135.93" targetQ="0.0" bus="B42" connectableBus="B42" p="59.0" q="-55.66138276937882">
                <iidm:minMaxReactiveLimits minQ="-300.0" maxQ="300.0"/>
            </iidm:generator>
            <iidm:load id="B42-L" loadType="UNDEFINED" p0="37.0" q0="23.0" bus="B42" connectableBus="B42" p="37.0" q="23.0"/>
        </iidm:voltageLevel>
    </iidm:substation>
    <iidm:substation id="S43">
        <iidm:voltageLevel id="VL43" nominalV="138.0" topologyKind="BUS_BREAKER">
            <iidm:busBreakerTopology>
                <iidm:bus id="B43" name="S.Kenton  V2" v="133.63213588087092" angle="-33.63356374837194"/>
            </iidm:busBreakerTopology>
            <iidm:load id="B43-L" loadType="UNDEFINED" p0="18.0" q0="7.0" bus="B43" connectableBus="B43" p="18.0" q="7.0"/>
        </iidm:voltageLevel>
    </iidm:substation>
    <iidm:substation id="S44">
        <iidm:voltageLevel id="VL44" nominalV="138.0" topologyKind="BUS_BREAKER">
            <iidm:busBreakerTopology>
                <iidm:bus id="B44" name="WMVernon  V2" v="134.2205799390482" angle="-26.306176498290412"/>
            </iidm:busBreakerTopology>
            <iidm:load id="B44-L" loadType="UNDEFINED" p0="16.0" q0="8.0" bus="B44" connectableBus="B44" p="16.0" q="8.0"/>
            <iidm:shunt id="B44-SH" sectionCount="1" voltageRegulatorOn="false" bus="B44" connectableBus="B44" p="0.0" q="-9.459758495680756">
                <iidm:shuntLinearModel bPerSection="5.250997689561017E-4" maximumSectionCount="1"/>
            </iidm:shunt>
        </iidm:voltageLevel>
    </iidm:substation>
    <iidm:substation id="S45">
        <iidm:voltageLevel id="VL45" nominalV="138.0" topologyKind="BUS_BREAKER">
            <iidm:busBreakerTopology>
                <iidm:bus id="B45" name="N.Newark  V2" v="134.92843726687835" angle="-22.704997629468238"/>
            </iidm:busBreakerTopology>
            <iidm:load id="B45-L" loadType="UNDEFINED" p0="53.0" q0="22.0" bus="B45" connectableBus="B45" p="53.0" q="22.0"/>
            <iidm:shunt id="B45-SH" sectionCount="1" voltageRegulatorOn="false" bus="B45" connectableBus="B45" p="0.0" q="-9.559800033229328">
                <iidm:shuntLinearModel bPerSection="5.250997689561017E-4" maximumSectionCount="1"/>
            </iidm:shunt>
        </iidm:voltageLevel>
    </iidm:substation>
    <iidm:substation id="S46">
        <iidm:voltageLevel id="VL46" nominalV="138.0" topologyKind="BUS_BREAKER">
            <iidm:busBreakerTopology>
                <iidm:bus id="B46" name="W.Lancst  V2" v="138.69" angle="-18.586739281518913"/>
            </iidm:busBreakerTopology>
            <iidm:generator id="B46-G" energySource="OTHER" minP="-9999.0" maxP="9999.0" voltageRegulatorOn="true" targetP="19.0" targetV="138.69" targetQ="0.0" bus="B46" connectableBus="B46" p="-19.0" q="-6.087774132384671">
                <iidm:minMaxReactiveLimits minQ="-100.0" maxQ="100.0"/>
            </iidm:generator>
            <iidm:load id="B46-L" loadType="UNDEFINED" p0="28.0" q0="10.0" bus="B46" connectableBus="B46" p="28.0" q="10.0"/>
            <iidm:shunt id="B46-SH" sectionCount="1" voltageRegulatorOn="false" bus="B46" connectableBus="B46" p="0.0" q="-10.100249999999999">
                <iidm:shuntLinearModel bPerSection="5.250997689561017E-4" maximumSectionCount="1"/>
            </iidm:shunt>
        </iidm:voltageLevel>
    </iidm:substation>
    <iidm:substation id="S47">
        <iidm:voltageLevel id="VL47" nominalV="138.0" topologyKind="BUS_BREAKER">
            <iidm:busBreakerTopology>
                <iidm:bus id="B47" name="Crooksvl  V2" v="139.89326947392826" angle="-15.181553248120773"/>
            </iidm:busBreakerTopology>
            <iidm:load id="B47-L" loadType="UNDEFINED" p0="34.0" q0="0.0" bus="B47" connectableBus="B47" p="34.0" q="0.0"/>
        </iidm:voltageLevel>
    </iidm:substation>
    <iidm:substation id="S48">
        <iidm:voltageLevel id="VL48" nominalV="138.0" topologyKind="BUS_BREAKER">
            <iidm:busBreakerTopology>
                <iidm:bus id="B48" name="Zanesvll  V2" v="140.83342535497792" angle="-16.805661859783992"/>
            </iidm:busBreakerTopology>
            <iidm:load id="B48-L" loadType="UNDEFINED" p0="20.0" q0="11.0" bus="B48" connectableBus="B48" p="20.0" q="11.0"/>
            <iidm:shunt id="B48-SH" sectionCount="1" voltageRegulatorOn="false" bus="B48" connectableBus="B48" p="0.0" q="-15.62228552080666">
                <iidm:shuntLinearModel bPerSection="7.876496534341525E-4" maximumSectionCount="1"/>
            </iidm:shunt>
        </iidm:voltageLevel>
    </iidm:substation>
    <iidm:substation id="S49">
        <iidm:voltageLevel id="VL49" nominalV="138.0" topologyKind="BUS_BREAKER">
            <iidm:busBreakerTopology>
                <iidm:bus id="B49" name="Philo     V2" v="141.44999999999996" angle="-15.713015017655074"/>
            </iidm:busBreakerTopology>
            <iidm:generator id="B49-G" energySource="OTHER" minP="-9999.0" maxP="9999.0" voltageRegulatorOn="true" targetP="204.0" targetV="141.45" targetQ="0.0" bus="B49" connectableBus="B49" p="-204.0" q="-155.53912428444593">
                <iidm:minMaxReactiveLimits minQ="-85.0" maxQ="210.0"/>
            </iidm:generator>
            <iidm:load id="B49-L" loadType="UNDEFINED" p0="87.0" q0="30.0" bus="B49" connectableBus="B49" p="87.0" q="30.0"/>
        </iidm:voltageLevel>
    </iidm:substation>
    <iidm:substation id="S50">
        <iidm:voltageLevel id="VL50" nominalV="138.0" topologyKind="BUS_BREAKER">
            <iidm:busBreakerTopology>
                <iidm:bus id="B50" name="WCambrdg  V2" v="138.16421694846005" angle="-17.677410040579183"/>
            </iidm:busBreakerTopology>
            <iidm:load id="B50-L" loadType="UNDEFINED" p0="17.0" q0="4.0" bus="B50" connectableBus="B50" p="17.0" q="4.0"/>
        </iidm:voltageLevel>
    </iidm:substation>
    <iidm:substation id="S51">
        <iidm:voltageLevel id="VL51" nominalV="138.0" topologyKind="BUS_BREAKER">
            <iidm:busBreakerTopology>
                <iidm:bus id="B51" name="Newcmrst  V2" v="133.4556780285391" angle="-20.201920572921615"/>
            </iidm:busBreakerTopology>
            <iidm:load id="B51-L" loadType="UNDEFINED" p0="17.0" q0="8.0" bus="B51" connectableBus="B51" p="17.0" q="8.0"/>
        </iidm:voltageLevel>
    </iidm:substation>
    <iidm:substation id="S52">
        <iidm:voltageLevel id="VL52" nominalV="138.0" topologyKind="BUS_BREAKER">
            <iidm:busBreakerTopology>
                <iidm:bus id="B52" name="SCoshoct  V2" v="132.06952384084073" angle="-21.13059592268184"/>
            </iidm:busBreakerTopology>
            <iidm:load id="B52-L" loadType="UNDEFINED" p0="18.0" q0="5.0" bus="B52" connectableBus="B52" p="18.0" q="5.0"/>
        </iidm:voltageLevel>
    </iidm:substation>
    <iidm:substation id="S53">
        <iidm:voltageLevel id="VL53" nominalV="138.0" topologyKind="BUS_BREAKER">
            <iidm:busBreakerTopology>
                <iidm:bus id="B53" name="Wooster   V2" v="130.56006365910523" angle="-22.037999706398296"/>
            </iidm:busBreakerTopology>
            <iidm:load id="B53-L" loadType="UNDEFINED" p0="23.0" q0="11.0" bus="B53" connectableBus="B53" p="23.0" q="11.0"/>
        </iidm:voltageLevel>
    </iidm:substation>
    <iidm:substation id="S54">
        <iidm:voltageLevel id="VL54" nominalV="138.0" topologyKind="BUS_BREAKER">
            <iidm:busBreakerTopology>
                <iidm:bus id="B54" name="Torrey    V2" v="131.79" angle="-21.07664190168504"/>
            </iidm:busBreakerTopology>
            <iidm:generator id="B54-G" energySource="OTHER" minP="-9999.0" maxP="9999.0" voltageRegulatorOn="true" targetP="48.0" targetV="131.79" targetQ="0.0" bus="B54" connectableBus="B54" p="-48.0" q="-3.552602170825242">
                <iidm:minMaxReactiveLimits minQ="-300.0" maxQ="300.0"/>
            </iidm:generator>
            <iidm:load id="B54-L" loadType="UNDEFINED" p0="113.0" q0="32.0" bus="B54" connectableBus="B54" p="113.0" q="32.0"/>
        </iidm:voltageLevel>
    </iidm:substation>
    <iidm:substation id="S55">
        <iidm:voltageLevel id="VL55" nominalV="138.0" topologyKind="BUS_BREAKER">
            <iidm:busBreakerTopology>
                <iidm:bus id="B55" name="Wagenhls  V2" v="131.376" angle="-21.3430180156496"/>
            </iidm:busBreakerTopology>
            <iidm:generator id="B55-G" energySource="OTHER" minP="-9999.0" maxP="9999.0" voltageRegulatorOn="true" targetP="0.0" targetV="131.376" targetQ="0.0" bus="B55" connectableBus="B55" p="-0.0" q="-4.665061290370956">
                <iidm:minMaxReactiveLimits minQ="-8.0" maxQ="23.0"/>
            </iidm:generator>
            <iidm:load id="B55-L" loadType="UNDEFINED" p0="63.0" q0="22.0" bus="B55" connectableBus="B55" p="63.0" q="22.0"/>
        </iidm:voltageLevel>
    </iidm:substation>
    <iidm:substation id="S56">
        <iidm:voltageLevel id="VL56" nominalV="138.0" topologyKind="BUS_BREAKER">
            <iidm:busBreakerTopology>
                <iidm:bus id="B56" name="Sunnysde  V2" v="131.652" angle="-21.169642415166898"/>
            </iidm:busBreakerTopology>
            <iidm:generator id="B56-G" energySource="OTHER" minP="-9999.0" maxP="9999.0" voltageRegulatorOn="true" targetP="0.0" targetV="131.652" targetQ="0.0" bus="B56" connectableBus="B56" p="-0.0" q="2.3048600065523783">
                <iidm:minMaxReactiveLimits minQ="-8.0" maxQ="15.0"/>
            </iidm:generator>
            <iidm:load id="B56-L" loadType="UNDEFINED" p0="84.0" q0="18.0" bus="B56" connectableBus="B56" p="84.0" q="18.0"/>
        </iidm:voltageLevel>
    </iidm:substation>
    <iidm:substation id="S57">
        <iidm:voltageLevel id="VL57" nominalV="138.0" topologyKind="BUS_BREAKER">
            <iidm:busBreakerTopology>
                <iidm:bus id="B57" name="WNwPhil1  V2" v="133.9554226598387" angle="-20.070958300801962"/>
            </iidm:busBreakerTopology>
            <iidm:load id="B57-L" loadType="UNDEFINED" p0="12.0" q0="3.0" bus="B57" connectableBus="B57" p="12.0" q="3.0"/>
        </iidm:voltageLevel>
    </iidm:substation>
    <iidm:substation id="S58">
        <iidm:voltageLevel id="VL58" nominalV="138.0" topologyKind="BUS_BREAKER">
            <iidm:busBreakerTopology>
                <iidm:bus id="B58" name="WNwPhil2  V2" v="132.36424041237862" angle="-20.909319414654153"/>
            </iidm:busBreakerTopology>
            <iidm:load id="B58-L" loadType="UNDEFINED" p0="12.0" q0="3.0" bus="B58" connectableBus="B58" p="12.0" q="3.0"/>
        </iidm:voltageLevel>
    </iidm:substation>
    <iidm:substation id="S59">
        <iidm:voltageLevel id="VL59" nominalV="138.0" topologyKind="BUS_BREAKER">
            <iidm:busBreakerTopology>
                <iidm:bus id="B59" name="Tidd      V2" v="135.93" angle="-16.70469849940528"/>
            </iidm:busBreakerTopology>
            <iidm:generator id="B59-G" energySource="OTHER" minP="-9999.0" maxP="9999.0" voltageRegulatorOn="true" targetP="155.0" targetV="135.93" targetQ="0.0" bus="B59" connectableBus="B59" p="-155.0" q="-77.05167658882138">
                <iidm:minMaxReactiveLimits minQ="-60.0" maxQ="180.0"/>
            </iidm:generator>
            <iidm:load id="B59-L" loadType="UNDEFINED" p0="277.0" q0="113.0" bus="B59" connectableBus="B59" p="277.0" q="113.0"/>
        </iidm:voltageLevel>
        <iidm:voltageLevel id="VL63" nominalV="345.0" topologyKind="BUS_BREAKER">
            <iidm:busBreakerTopology>
                <iidm:bus id="B63" name="Tidd      V1" v="334.13400342642683" angle="-13.217838092037105"/>
            </iidm:busBreakerTopology>
        </iidm:voltageLevel>
        <iidm:twoWindingsTransformer id="T63-59-1" r="0.0" x="7.350984" g="0.0" b="0.0" ratedU1="331.2" ratedU2="138.0" voltageLevelId1="VL63" bus1="B63" connectableBus1="B63" voltageLevelId2="VL59" bus2="B59" connectableBus2="B59" p1="156.57524224003643" q1="67.12351282264856" p2="-156.5752422400364" q2="-56.117131393113404"/>
    </iidm:substation>
    <iidm:substation id="S60">
        <iidm:voltageLevel id="VL60" nominalV="138.0" topologyKind="BUS_BREAKER">
            <iidm:busBreakerTopology>
                <iidm:bus id="B60" name="SWKammer  V2" v="137.0547387474463" angle="-12.83152480898246"/>
            </iidm:busBreakerTopology>
            <iidm:load id="B60-L" loadType="UNDEFINED" p0="78.0" q0="3.0" bus="B60" connectableBus="B60" p="78.0" q="3.0"/>
        </iidm:voltageLevel>
    </iidm:substation>
    <iidm:substation id="S61">
        <iidm:voltageLevel id="VL61" nominalV="138.0" topologyKind="BUS_BREAKER">
            <iidm:busBreakerTopology>
                <iidm:bus id="B61" name="W.Kammer  V2" v="137.31" angle="-11.927528912423965"/>
            </iidm:busBreakerTopology>
            <iidm:generator id="B61-G" energySource="OTHER" minP="-9999.0" maxP="9999.0" voltageRegulatorOn="true" targetP="160.0" targetV="137.31" targetQ="0.0" bus="B61" connectableBus="B61" p="-160.0" q="40.327360837004775">
                <iidm:minMaxReactiveLimits minQ="-100.0" maxQ="300.0"/>
            </iidm:generator>
        </iidm:voltageLevel>
        <iidm:voltageLevel id="VL64" nominalV="345.0" topologyKind="BUS_BREAKER">
            <iidm:busBreakerTopology>
                <iidm:bus id="B64" name="Kammer    V1" v="339.32584465923514" angle="-11.392945517222554"/>
            </iidm:busBreakerTopology>
        </iidm:voltageLevel>
        <iidm:twoWindingsTransformer id="T64-61-1" r="0.0" x="5.103792" g="0.0" b="0.0" ratedU1="339.825" ratedU2="138.0" voltageLevelId1="VL64" bus1="B64" connectableBus1="B64" voltageLevelId2="VL61" bus2="B61" connectableBus2="B61" p1="34.588874560181324" q1="13.317904500133965" p2="-34.58887456018132" q2="-12.948653712678194"/>
    </iidm:substation>
    <iidm:substation id="S62">
        <iidm:voltageLevel id="VL62" nominalV="138.0" topologyKind="BUS_BREAKER">
            <iidm:busBreakerTopology>
                <iidm:bus id="B62" name="Natrium   V2" v="137.72399999999996" angle="-12.574465535212928"/>
            </iidm:busBreakerTopology>
            <iidm:generator id="B62-G" energySource="OTHER" minP="-9999.0" maxP="9999.0" voltageRegulatorOn="true" targetP="0.0" targetV="137.724" targetQ="0.0" bus="B62" connectableBus="B62" p="-0.0" q="-1.1549987724634807">
                <iidm:minMaxReactiveLimits minQ="-20.0" maxQ="20.0"/>
            </iidm:generator>
            <iidm:load id="B62-L" loadType="UNDEFINED" p0="77.0" q0="14.0" bus="B62" connectableBus="B62" p="77.0" q="14.0"/>
        </iidm:voltageLevel>
    </iidm:substation>
    <iidm:substation id="S65">
        <iidm:voltageLevel id="VL65" nominalV="345.0" topologyKind="BUS_BREAKER">
            <iidm:busBreakerTopology>
                <iidm:bus id="B65" name="Muskngum  V1" v="346.7249999999999" angle="-8.109794227688186"/>
            </iidm:busBreakerTopology>
            <iidm:generator id="B65-G" energySource="OTHER" minP="-9999.0" maxP="9999.0" voltageRegulatorOn="true" targetP="391.0" targetV="346.72499999999997" targetQ="0.0" bus="B65" connectableBus="B65" p="-391.0" q="-163.90493679887422">
                <iidm:minMaxReactiveLimits minQ="-67.0" maxQ="200.0"/>
            </iidm:generator>
        </iidm:voltageLevel>
        <iidm:voltageLevel id="VL66" nominalV="138.0" topologyKind="BUS_BREAKER">
            <iidm:busBreakerTopology>
                <iidm:bus id="B66" name="Muskngum  V2" v="144.9" angle="-8.638397302371855"/>
            </iidm:busBreakerTopology>
            <iidm:generator id="B66-G" energySource="OTHER" minP="-9999.0" maxP="9999.0" voltageRegulatorOn="true" targetP="392.0" targetV="144.9" targetQ="0.0" bus="B66" connectableBus="B66" p="-392.0" q="3.1776191343147744">
                <iidm:minMaxReactiveLimits minQ="-67.0" maxQ="200.0"/>
            </iidm:generator>
            <iidm:load id="B66-L" loadType="UNDEFINED" p0="39.0" q0="18.0" bus="B66" connectableBus="B66" p="39.0" q="18.0"/>
        </iidm:voltageLevel>
        <iidm:twoWindingsTransformer id="T65-66-1" r="0.0" x="7.046279999999999" g="0.0" b="0.0" ratedU1="322.57500000000005" ratedU2="138.0" voltageLevelId1="VL65" bus1="B65" connectableBus1="B65" voltageLevelId2="VL66" bus2="B66" connectableBus2="B66" p1="28.141219745272426" q1="72.36754161577826" p2="-28.141219745272426" q2="-70.43674140555082"/>
    </iidm:substation>
    <iidm:substation id="S67">
        <iidm:voltageLevel id="VL67" nominalV="138.0" topologyKind="BUS_BREAKER">
            <iidm:busBreakerTopology>
                <iidm:bus id="B67" name="Summerfl  V2" v="140.7211640687787" angle="-11.224833214490856"/>
            </iidm:busBreakerTopology>
            <iidm:load id="B67-L" loadType="UNDEFINED" p0="28.0" q0="7.0" bus="B67" connectableBus="B67" p="28.0" q="7.0"/>
        </iidm:voltageLevel>
    </iidm:substation>
    <iidm:substation id="S68">
        <iidm:voltageLevel id="VL68" nominalV="345.0" topologyKind="BUS_BREAKER">
            <iidm:busBreakerTopology>
                <iidm:bus id="B68" name="Sporn     V1" v="346.11354565391974" angle="-6.1485500285402575"/>
            </iidm:busBreakerTopology>
        </iidm:voltageLevel>
        <iidm:voltageLevel id="VL69" nominalV="138.0" topologyKind="BUS_BREAKER">
            <iidm:busBreakerTopology>
                <iidm:bus id="B69" name="Sporn     V2" v="142.8299999999999" angle="0.0"/>
            </iidm:busBreakerTopology>
            <iidm:generator id="B69-G" energySource="OTHER" minP="-9999.0" maxP="9999.0" voltageRegulatorOn="true" targetP="516.4" targetV="142.82999999999998" targetQ="0.0" bus="B69" connectableBus="B69" p="-516.4" q="90.53632323556936">
                <iidm:minMaxReactiveLimits minQ="-300.0" maxQ="300.0"/>
            </iidm:generator>
        </iidm:voltageLevel>
        <iidm:twoWindingsTransformer id="T68-69-1" r="0.0" x="7.046279999999999" g="0.0" b="0.0" ratedU1="322.57500000000005" ratedU2="138.0" voltageLevelId1="VL68" bus1="B68" connectableBus1="B68" voltageLevelId2="VL69" bus2="B69" connectableBus2="B69" p1="-321.47168131920427" q1="127.3777567413583" p2="321.4716813192042" q2="-88.95000025582772"/>
    </iidm:substation>
    <iidm:substation id="S70">
        <iidm:voltageLevel id="VL70" nominalV="138.0" topologyKind="BUS_BREAKER">
            <iidm:busBreakerTopology>
                <iidm:bus id="B70" name="Portsmth  V2" v="135.79199999999997" angle="-12.146080759383239"/>
            </iidm:busBreakerTopology>
            <iidm:generator id="B70-G" energySource="OTHER" minP="-9999.0" maxP="9999.0" voltageRegulatorOn="true" targetP="0.0" targetV="135.792" targetQ="0.0" bus="B70" connectableBus="B70" p="-0.0" q="-45.56763271648913">
                <iidm:minMaxReactiveLimits minQ="-10.0" maxQ="32.0"/>
            </iidm:generator>
            <iidm:load id="B70-L" loadType="UNDEFINED" p0="66.0" q0="20.0" bus="B70" connectableBus="B70" p="66.0" q="20.0"/>
        </iidm:voltageLevel>
    </iidm:substation>
    <iidm:substation id="S71">
        <iidm:voltageLevel id="VL71" nominalV="138.0" topologyKind="BUS_BREAKER">
            <iidm:busBreakerTopology>
                <iidm:bus id="B71" name="NPortsmt  V2" v="136.07849706891474" angle="-13.62391552707862"/>
            </iidm:busBreakerTopology>
        </iidm:voltageLevel>
    </iidm:substation>
    <iidm:substation id="S72">
        <iidm:voltageLevel id="VL72" nominalV="138.0" topologyKind="BUS_BREAKER">
            <iidm:busBreakerTopology>
                <iidm:bus id="B72" name="Hillsbro  V2" v="135.24000000000004" angle="-20.120884379643893"/>
            </iidm:busBreakerTopology>
            <iidm:generator id="B72-G" energySource="OTHER" minP="-9999.0" maxP="9999.0" voltageRegulatorOn="true" targetP="-12.0" targetV="135.24" targetQ="0.0" bus="B72" connectableBus="B72" p="12.0" q="5.0027975665248">
                <iidm:minMaxReactiveLimits minQ="-100.0" maxQ="100.0"/>
            </iidm:generator>
        </iidm:voltageLevel>
    </iidm:substation>
    <iidm:substation id="S73">
        <iidm:voltageLevel id="VL73" nominalV="138.0" topologyKind="BUS_BREAKER">
            <iidm:busBreakerTopology>
                <iidm:bus id="B73" name="Sargents  V2" v="136.758" angle="-13.844097095291962"/>
            </iidm:busBreakerTopology>
            <iidm:generator id="B73-G" energySource="OTHER" minP="-9999.0" maxP="9999.0" voltageRegulatorOn="true" targetP="-6.0" targetV="136.758" targetQ="0.0" bus="B73" connectableBus="B73" p="6.0" q="-11.330000188003067">
                <iidm:minMaxReactiveLimits minQ="-100.0" maxQ="100.0"/>
            </iidm:generator>
        </iidm:voltageLevel>
    </iidm:substation>
    <iidm:substation id="S74">
        <iidm:voltageLevel id="VL74" nominalV="138.0" topologyKind="BUS_BREAKER">
            <iidm:busBreakerTopology>
                <iidm:bus id="B74" name="Bellefnt  V2" v="132.204" angle="-11.578824404206665"/>
            </iidm:busBreakerTopology>
            <iidm:generator id="B74-G" energySource="OTHER" minP="-9999.0" maxP="9999.0" voltageRegulatorOn="true" targetP="0.0" targetV="132.204" targetQ="0.0" bus="B74" connectableBus="B74" p="-0.0" q="1.5689624365339772">
                <iidm:minMaxReactiveLimits minQ="-6.0" maxQ="9.0"/>
            </iidm:generator>
            <iidm:load id="B74-L" loadType="UNDEFINED" p0="68.0" q0="27.0" bus="B74" connectableBus="B74" p="68.0" q="27.0"/>
            <iidm:shunt id="B74-SH" sectionCount="1" voltageRegulatorOn="false" bus="B74" connectableBus="B74" p="0.0" q="-11.013168000000002">
                <iidm:shuntLinearModel bPerSection="6.30119722747322E-4" maximumSectionCount="1"/>
            </iidm:shunt>
        </iidm:voltageLevel>
    </iidm:substation>
    <iidm:substation id="S75">
        <iidm:voltageLevel id="VL75" nominalV="138.0" topologyKind="BUS_BREAKER">
            <iidm:busBreakerTopology>
                <iidm:bus id="B75" name="SthPoint  V2" v="133.28189895369556" angle="-9.80996916554264"/>
            </iidm:busBreakerTopology>
            <iidm:load id="B75-L" loadType="UNDEFINED" p0="47.0" q0="11.0" bus="B75" connectableBus="B75" p="47.0" q="11.0"/>
        </iidm:voltageLevel>
    </iidm:substation>
    <iidm:substation id="S76">
        <iidm:voltageLevel id="VL76" nominalV="138.0" topologyKind="BUS_BREAKER">
            <iidm:busBreakerTopology>
                <iidm:bus id="B76" name="Darrah    V2" v="130.134" angle="-10.791389663336798"/>
            </iidm:busBreakerTopology>
            <iidm:generator id="B76-G" energySource="OTHER" minP="-9999.0" maxP="9999.0" voltageRegulatorOn="true" targetP="0.0" targetV="130.134" targetQ="0.0" bus="B76" connectableBus="B76" p="-0.0" q="-6.902456514175009">
                <iidm:minMaxReactiveLimits minQ="-8.0" maxQ="23.0"/>
            </iidm:generator>
            <iidm:load id="B76-L" loadType="UNDEFINED" p0="68.0" q0="36.0" bus="B76" connectableBus="B76" p="68.0" q="36.0"/>
        </iidm:voltageLevel>
    </iidm:substation>
    <iidm:substation id="S77">
        <iidm:voltageLevel id="VL77" nominalV="138.0" topologyKind="BUS_BREAKER">
            <iidm:busBreakerTopology>
                <iidm:bus id="B77" name="Turner    V2" v="138.82799999999997" angle="-5.584679213664731"/>
            </iidm:busBreakerTopology>
            <iidm:generator id="B77-G" energySource="OTHER" minP="-9999.0" maxP="9999.0" voltageRegulatorOn="true" targetP="0.0" targetV="138.828" targetQ="0.0" bus="B77" connectableBus="B77" p="-0.0" q="-15.640904285836694">
                <iidm:minMaxReactiveLimits minQ="-20.0" maxQ="70.0"/>
            </iidm:generator>
            <iidm:load id="B77-L" loadType="UNDEFINED" p0="61.0" q0="28.0" bus="B77" connectableBus="B77" p="61.0" q="28.0"/>
        </iidm:voltageLevel>
    </iidm:substation>
    <iidm:substation id="S78">
        <iidm:voltageLevel id="VL78" nominalV="138.0" topologyKind="BUS_BREAKER">
            <iidm:busBreakerTopology>
                <iidm:bus id="B78" name="Chemical  V2" v="138.46728598849748" angle="-5.94036504203711"/>
            </iidm:busBreakerTopology>
            <iidm:load id="B78-L" loadType="UNDEFINED" p0="71.0" q0="26.0" bus="B78" connectableBus="B78" p="71.0" q="26.0"/>
        </iidm:voltageLevel>
    </iidm:substation>
    <iidm:substation id="S79">
        <iidm:voltageLevel id="VL79" nominalV="138.0" topologyKind="BUS_BREAKER">
            <iidm:busBreakerTopology>
                <iidm:bus id="B79" name="CapitlHl  V2" v="139.27592836569167" angle="-5.740870588124393"/>
            </iidm:busBreakerTopology>
            <iidm:load id="B79-L" loadType="UNDEFINED" p0="39.0" q0="32.0" bus="B79" connectableBus="B79" p="39.0" q="32.0"/>
            <iidm:shunt id="B79-SH" sectionCount="1" voltageRegulatorOn="false" bus="B79" connectableBus="B79" p="0.0" q="-20.371544026596602">
                <iidm:shuntLinearModel bPerSection="0.0010501995379122034" maximumSectionCount="1"/>
            </iidm:shunt>
        </iidm:voltageLevel>
    </iidm:substation>
    <iidm:substation id="S80">
        <iidm:voltageLevel id="VL80" nominalV="138.0" topologyKind="BUS_BREAKER">
            <iidm:busBreakerTopology>
                <iidm:bus id="B80" name="CabinCrk  V2" v="143.52" angle="-3.7728327968719024"/>
            </iidm:busBreakerTopology>
            <iidm:generator id="B80-G" energySource="OTHER" minP="-9999.0" maxP="9999.0" voltageRegulatorOn="true" targetP="477.0" targetV="143.52" targetQ="0.0" bus="B80" connectableBus="B80" p="-476.99999999999994" q="-113.64215856911986">
                <iidm:minMaxReactiveLimits minQ="-165.0" maxQ="280.0"/>
            </iidm:generator>
            <iidm:load id="B80-L" loadType="UNDEFINED" p0="130.0" q0="26.0" bus="B80" connectableBus="B80" p="130.0" q="26.0"/>
        </iidm:voltageLevel>
        <iidm:voltageLevel id="VL81" nominalV="345.0" topologyKind="BUS_BREAKER">
            <iidm:busBreakerTopology>
                <iidm:bus id="B81" name="Kanawha   V1" v="343.9679719163846" angle="-5.229893339634669"/>
            </iidm:busBreakerTopology>
        </iidm:voltageLevel>
        <iidm:twoWindingsTransformer id="T81-80-1" r="0.0" x="7.046279999999999" g="0.0" b="0.0" ratedU1="322.57500000000005" ratedU2="138.0" voltageLevelId1="VL81" bus1="B81" connectableBus1="B81" voltageLevelId2="VL80" bus2="B80" connectableBus2="B80" p1="-76.21265105166434" q1="76.82008256863533" p2="76.21265105166435" q2="-73.0096643639234"/>
    </iidm:substation>
    <iidm:substation id="S82">
        <iidm:voltageLevel id="VL82" nominalV="138.0" topologyKind="BUS_BREAKER">
            <iidm:busBreakerTopology>
                <iidm:bus id="B82" name="Logan     V2" v="136.41363634582456" angle="-5.259712741533969"/>
            </iidm:busBreakerTopology>
            <iidm:load id="B82-L" loadType="UNDEFINED" p0="54.0" q0="27.0" bus="B82" connectableBus="B82" p="54.0" q="27.0"/>
            <iidm:shunt id="B82-SH" sectionCount="1" voltageRegulatorOn="false" bus="B82" connectableBus="B82" p="0.0" q="-19.542827327337605">
                <iidm:shuntLinearModel bPerSection="0.0010501995379122034" maximumSectionCount="1"/>
            </iidm:shunt>
        </iidm:voltageLevel>
    </iidm:substation>
    <iidm:substation id="S83">
        <iidm:voltageLevel id="VL83" nominalV="138.0" topologyKind="BUS_BREAKER">
            <iidm:busBreakerTopology>
                <iidm:bus id="B83" name="Sprigg    V2" v="135.84382997388303" angle="-4.083098900664196"/>
            </iidm:busBreakerTopology>
            <iidm:load id="B83-L" loadType="UNDEFINED" p0="20.0" q0="10.0" bus="B83" connectableBus="B83" p="20.0" q="10.0"/>
            <iidm:shunt id="B83-SH" sectionCount="1" voltageRegulatorOn="false" bus="B83" connectableBus="B83" p="0.0" q="-9.689952815570912">
                <iidm:shuntLinearModel bPerSection="5.250997689561017E-4" maximumSectionCount="1"/>
            </iidm:shunt>
        </iidm:voltageLevel>
    </iidm:substation>
    <iidm:substation id="S84">
        <iidm:voltageLevel id="VL84" nominalV="138.0" topologyKind="BUS_BREAKER">
            <iidm:busBreakerTopology>
                <iidm:bus id="B84" name="BetsyLne  V2" v="135.20042159847299" angle="-1.5719012696785257"/>
            </iidm:busBreakerTopology>
            <iidm:load id="B84-L" loadType="UNDEFINED" p0="11.0" q0="7.0" bus="B84" connectableBus="B84" p="11.0" q="7.0"/>
        </iidm:voltageLevel>
    </iidm:substation>
    <iidm:substation id="S85">
        <iidm:voltageLevel id="VL85" nominalV="138.0" topologyKind="BUS_BREAKER">
            <iidm:busBreakerTopology>
                <iidm:bus id="B85" name="BeaverCk  V2" v="135.93" angle="-0.028787984405594994"/>
            </iidm:busBreakerTopology>
            <iidm:generator id="B85-G" energySource="OTHER" minP="-9999.0" maxP="9999.0" voltageRegulatorOn="true" targetP="0.0" targetV="135.93" targetQ="0.0" bus="B85" connectableBus="B85" p="-0.0" q="5.608701815626748">
                <iidm:minMaxReactiveLimits minQ="-8.0" maxQ="23.0"/>
            </iidm:generator>
            <iidm:load id="B85-L" loadType="UNDEFINED" p0="24.0" q0="15.0" bus="B85" connectableBus="B85" p="24.0" q="15.0"/>
        </iidm:voltageLevel>
    </iidm:substation>
    <iidm:substation id="S86">
        <iidm:voltageLevel id="VL86" nominalV="138.0" topologyKind="BUS_BREAKER">
            <iidm:busBreakerTopology>
                <iidm:bus id="B86" name="Hazard    V2" v="136.16332300112282" angle="-1.3982367157816558"/>
            </iidm:busBreakerTopology>
            <iidm:load id="B86-L" loadType="UNDEFINED" p0="21.0" q0="10.0" bus="B86" connectableBus="B86" p="21.0" q="10.0"/>
        </iidm:voltageLevel>
    </iidm:substation>
    <iidm:substation id="S87">
        <iidm:voltageLevel id="VL87" nominalV="161.0" topologyKind="BUS_BREAKER">
            <iidm:busBreakerTopology>
                <iidm:bus id="B87" name="Pinevlle  V3" v="163.415" angle="-1.1390242790028615"/>
            </iidm:busBreakerTopology>
            <iidm:generator id="B87-G" energySource="OTHER" minP="-9999.0" maxP="9999.0" voltageRegulatorOn="true" targetP="4.0" targetV="163.415" targetQ="0.0" bus="B87" connectableBus="B87" p="-4.0" q="-11.021607354416782">
                <iidm:minMaxReactiveLimits minQ="-100.0" maxQ="1000.0"/>
            </iidm:generator>
        </iidm:voltageLevel>
    </iidm:substation>
    <iidm:substation id="S88">
        <iidm:voltageLevel id="VL88" nominalV="138.0" topologyKind="BUS_BREAKER">
            <iidm:busBreakerTopology>
                <iidm:bus id="B88" name="Fremont   V2" v="136.2711506472718" angle="3.0847777284596307"/>
            </iidm:busBreakerTopology>
            <iidm:load id="B88-L" loadType="UNDEFINED" p0="48.0" q0="10.0" bus="B88" connectableBus="B88" p="48.0" q="10.0"/>
        </iidm:voltageLevel>
    </iidm:substation>
    <iidm:substation id="S89">
        <iidm:voltageLevel id="VL89" nominalV="138.0" topologyKind="BUS_BREAKER">
            <iidm:busBreakerTopology>
                <iidm:bus id="B89" name="ClinchRv  V2" v="138.69" angle="7.128242702890617"/>
            </iidm:busBreakerTopology>
            <iidm:generator id="B89-G" energySource="OTHER" minP="-9999.0" maxP="9999.0" voltageRegulatorOn="true" targetP="607.0" targetV="138.69" targetQ="0.0" bus="B89" connectableBus="B89" p="-607.0" q="5.959400643467508">
                <iidm:minMaxReactiveLimits minQ="-210.0" maxQ="300.0"/>
            </iidm:generator>
        </iidm:voltageLevel>
    </iidm:substation>
    <iidm:substation id="S90">
        <iidm:voltageLevel id="VL90" nominalV="138.0" topologyKind="BUS_BREAKER">
            <iidm:busBreakerTopology>
                <iidm:bus id="B90" name="Holston   V2" v="135.93" angle="0.7150082553018713"/>
            </iidm:busBreakerTopology>
            <iidm:generator id="B90-G" energySource="OTHER" minP="-9999.0" maxP="9999.0" voltageRegulatorOn="true" targetP="-85.0" targetV="135.93" targetQ="0.0" bus="B90" connectableBus="B90" p="85.0" q="-59.313924243929364">
                <iidm:minMaxReactiveLimits minQ="-300.0" maxQ="300.0"/>
            </iidm:generator>
            <iidm:load id="B90-L" loadType="UNDEFINED" p0="78.0" q0="42.0" bus="B90" connectableBus="B90" p="78.0" q="42.0"/>
        </iidm:voltageLevel>
    </iidm:substation>
    <iidm:substation id="S91">
        <iidm:voltageLevel id="VL91" nominalV="138.0" topologyKind="BUS_BREAKER">
            <iidm:busBreakerTopology>
                <iidm:bus id="B91" name="HolstonT  V2" v="135.24" angle="0.7230166788607926"/>
            </iidm:busBreakerTopology>
            <iidm:generator id="B91-G" energySource="OTHER" minP="-9999.0" maxP="9999.0" voltageRegulatorOn="true" targetP="-10.0" targetV="135.24" targetQ="0.0" bus="B91" connectableBus="B91" p="10.0" q="13.088861939766005">
                <iidm:minMaxReactiveLimits minQ="-100.0" maxQ="100.0"/>
            </iidm:generator>
        </iidm:voltageLevel>
    </iidm:substation>
    <iidm:substation id="S92">
        <iidm:voltageLevel id="VL92" nominalV="138.0" topologyKind="BUS_BREAKER">
            <iidm:busBreakerTopology>
...